**$ENCRYPTED_LIB
**$INTERFACE
*$
* TPS92512
*****************************************************************************
* (C) Copyright 2014 Texas Instruments Incorporated. All rights reserved.                                            
*****************************************************************************
** This model is designed as an aid for customers of Texas Instruments.
** TI and its licensors and suppliers make no warranties, either expressed
** or implied, with respect to this model, including the warranties of 
** merchantability or fitness for a particular purpose.  The model is
** provided solely on an "as is" basis.  The entire risk as to its quality
** and performance is with the customer
*****************************************************************************
*
* This model is subject to change without notice. Texas Instruments
* Incorporated is not responsible for updating this model.
*
*****************************************************************************
*
** Released by: WEBENCH Design Center, Texas Instruments Inc.
* Part: TPS92512
* Date: 09DEC2014
* Model Type: TRANSIENT
* Simulator: PSPICE
* Simulator Version: 16.2.0.p001
* EVM Order Number: TPS92512EVM-001
* EVM Users Guide: SLVUAC9 November 2014
* Datasheet: N/A
*
* Model Version: Final 1.00
*
*****************************************************************************
*
* Updates:
*
* Final 1.00
* Release to Web.
*
*****************************************************************************
.SUBCKT TPS92512_TRANS BOOT COMP GND IADJ ISENSE PDIM PH PwrPD RT_CLK UVLO 
+  VIN  PARAMS: STEADY=0
$CDNENCSTART
eee8c5c7a2bc4b01f045f303678664e7916da0bae22e8cb0bba041dd67c69ce448ea70148a9ac1670c8926c1ac5057c8ccfcd77bf87ca9dc47a67794e3079295
a78fdcc1e2fc2ea7706b807646b803717f0cfb9c3a026e970a99850bd9a5787017352214978cff493496446293d294243d42ec0e9adceefd1ebaf2afd09dba0a
b67df0d3ab862a12706b807646b80371296fa36436a1c4e2e9d547caf5cf0fdaf7d247590ebc913c7a942d66dca290f21850038c97b1cf05ea4f5950fa1bf133
385bb969478bc1fd908295b3613f26e6816a18c12f7dc59b4a1a8c22c696418a1b174e3e5fc77788c6d60d594c63aed386cc38c9a5b2e6a4263173108f7034a9
bae943bb90946a971175a65080904194b09e2116325bc9f149f8aa45cfdb81e41250d17b62510b67459171a86b5716f3cd0d3557d8a853f00aced5acb200215e
e4d6b70bcd676ae4706b807646b8037122b9300ae6b7e53e92559dec748a997a085b68735db94f687a942d66dca290f21850038c97b1cf05ea4f5950fa1bf133
22cc75479b3d980a706b807646b803716b985e4585917f9b56bfede5d11cc7ca3bb987347dc8406bfa89a606242e3e0d2cca841347251cd32a04a1ee390c5a6f
1ac3d64a7ec42565706b807646b8037122b9300ae6b7e53e0c1110226655a1af166ddf54da51675812b04dc2035cf3d78f26dd77f7410485c27a0fe47ba19b0a
4651b4c215cbe2b1c23cdff2c91ac4503bb987347dc8406bfa89a606242e3e0d2cca841347251cd3048a47ee3223a427a53448d7f4e630a74e57665416e61e0a
8767f397bff4c3a731bbfa71d5efb6fe825b843a3aa9ddcd3bb987347dc8406bfa89a606242e3e0d2cca841347251cd3048a47ee3223a427cd4b542e1691d6b7
e9f419af62bfe95eba057fd7654376a7816a18c12f7dc59b4a1a8c22c696418a749d13634498f34b192fb0130cd26ef2a3cd5474c6b4d9d75e5f5ea6ac8d5e47
b0fefffb41bb4190e71f71e187584171c3aa873d428e4f8bc6a3ea7e4e0e48257f6e4a1021e1a9fbf3dab9b2523e459f0fd4af69404dbd19cf7098479cee5f40
96052d1403ece34c1b335ff66691221531851557833c003695a3cad624d43bf5085b68735db94f687a942d66dca290f21850038c97b1cf05ea4f5950fa1bf133
cc02ecf58480fd67706b807646b803718f5193a671b4afe57e403bebb699980076617f42cd5d956bc3aa873d428e4f8bc6a3ea7e4e0e4825c4c06cc4bd52c30c
6b3b01399c07bc13706b807646b803718f5193a671b4afe50e0380a66343f28c7a942d66dca290f21850038c97b1cf05e0b10c1877c77b2ceed3b99f3f996d6c
971b7db323b095d3706b807646b80371d1871ffc62905a043be93ac3de9c32bfbf1ee911780421dd6cf1b7c89fef48f49d6926c833f23ebcd651f63704e34783
0e84779c45a616930a25175bd88171474b080406fa05b523b09e2116325bc9f149f8aa45cfdb81e41250d17b62510b67459171a86b5716f32cda075d37281a3b
edc1c2ba8ccd23c6942c0ceb1e661b490ccf2addf8667576862a707782f3753ee383abd86b659b604027d882fa2f70842af8e3a4c192f91546917d0956565034
2130099189abd5f1706b807646b80371862a707782f3753e6e91aee8c8e4b643528bfae8010eaebd3bb987347dc8406bfa89a606242e3e0deb7ea8bab8335d16
dcbbe768800874ee942c0ceb1e661b49f6bbd04622487832dc9412f62a9628361b6bfe099028a27289b4b8376dfc02be650e5b81addfbf56523c74203e506a62
a821a90ac6c107853bb987347dc8406bfa89a606242e3e0d2cca841347251cd3048a47ee3223a427a53448d7f4e630a783ad2ee2715460fe3ca3335b03ccbaf4
8f6bad1ea32cf61abbc1ba19649ebd1560ee7edaacbdbdd1efdaf9390396176d66eaeb9fc4cc8ae1335c3b3a110c86012bad6b3edf8871622a8a2c724ef97df4
b1694e344a61d01b6cf1b7c89fef48f49d6926c833f23ebc369190d0ff77a684bd0685468aa88736e96a48d26648e7af17eb7828628cb8dea50a0be7c3814648
b6c258f251f214186aa275370c5e8551af659886c3f4546fe1a2368f907499ff047321e41449ec944642611dc6e28ba121801b270afa3e85484379fba1bca2d2
1e19db9dc3030c2a706b807646b80371a82a81dee079ca3889b4b8376dfc02beb04c165f1f992a41b09e2116325bc9f149f8aa45cfdb81e42d367b0a575e3ce9
8f6bad1ea32cf61a61e7d90d036bba9360ee7edaacbdbdd1efdaf9390396176d66eaeb9fc4cc8ae1335c3b3a110c86012bad6b3edf8871622a8a2c724ef97df4
b1694e344a61d01b6cf1b7c89fef48f49d6926c833f23ebc369190d0ff77a684bd0685468aa88736e96a48d26648e7af17eb7828628cb8dea50a0be7c3814648
b6c258f251f214186aa275370c5e855159e52075db7fcfe10eeb6fc3e65c5e572eb5b7a515e50cf73496446293d294243d42ec0e9adceefd1ebaf2afd09dba0a
e7fbf18c7c134ada706b807646b8037178edcc32c00d40993a5f3b2038a217960ccf2addf86675769c43c24eda4802f788b96b7c831faa4af2d5e5299905ab7b
a68ba69006c80e09157dcbb6421b1256fe5dfaa2d8850981a0d4ab6fc4a7c7df065f83aae4634fa9879999bc95c9f2dd6e3ab2a5aa20457983462b1f84ceed07
4b6085f2012636675a0aa31c52cddba976617f42cd5d956bc3aa873d428e4f8bc6a3ea7e4e0e48257f6e4a1021e1a9fbf3dab9b2523e459f171367ae44cb2c40
aa96bca0d79018c4706b807646b80371862a707782f3753e108510f11cc9c21650739748f4d5c75e7a942d66dca290f21850038c97b1cf05ea4f5950fa1bf133
6f3c156bfc46c6d6706b807646b803711d2c7ede4942af5de65228fa9d3ede4a6ade4ececba5543a3d8b2b50c4f681dbd2bbd7e847d638e106ca5c9d845745cf
a5257eba54077ab5021166ac3753b7b8b09e2116325bc9f149f8aa45cfdb81e41250d17b62510b67459171a86b5716f3cd0d3557d8a853f00aced5acb200215e
4b6085f2012636675a0aa31c52cddba976617f42cd5d956bc3aa873d428e4f8bc6a3ea7e4e0e48257f6e4a1021e1a9fbf3dab9b2523e459f171367ae44cb2c40
2fbc62dc97daa403706b807646b803718f5193a671b4afe5d7d8b1632cb0db8197b3dd1dc8452c6860877ff0912fae9efe5dfaa2d885098125129e7f856f61ae
c0a41cdff58ff34a706b807646b80371ff02eb1d3f15345111ca6a838db319264eb7e66fdca99d274f8181b227c1b6b53bb987347dc8406ba4ce56269f4bc2c4
a6204c836c38606b6dd0513262cc7fe1442ac16c789382f437f6d0376a8a7c03fe5dfaa2d8850981a0d4ab6fc4a7c7df065f83aae4634fa919ad55f47afc7ee4
0e84779c45a61693360cef7ba06ea105aba77df44cbcaf746cf1b7c89fef48f49d6926c833f23ebc369190d0ff77a684bd0685468aa887361859ff8907514bf8
507647929949476216133fa516cec5aa226103094ece2d473496446293d294243d42ec0e9adceefd4f578f1576706b72847ae85b4c1e21224ec5d655c83c16a9
0abb8c42c110d7c5599f5e804f7a0b60039f806b64f96b430cb8d8944bc4ac00d2bbd7e847d638e1e776e9b255bda08cbfd81d659a09e4b30c138f656e983247
31bbfa71d5efb6fe102372497787b35c7a942d66dca290f21850038c97b1cf05e0b10c1877c77b2c2c9ef1310bdbb5178266656de5cb7df5b8899015db32c1d7
1641f7c3ce1c57eb706b807646b803710921717109d5829e3d3333e1fdbebc7756bfede5d11cc7ca3bb987347dc8406bfa89a606242e3e0deb7ea8bab8335d16
a3b0a569056f091feb8784877639638338a742705cd2c15c9d4ab9669a2c96b82c43f6617166c19b726d9a7f6b37359c8318958aa75d4556dd0a70f33e2447ea
4e2689494256295447158635b18b66593bb987347dc8406bfa89a606242e3e0d2cca841347251cd3048a47ee3223a427a53448d7f4e630a74e57665416e61e0a
4b6085f2012636675a0aa31c52cddba976617f42cd5d956bc3aa873d428e4f8bc6a3ea7e4e0e48257f6e4a1021e1a9fbf3dab9b2523e459f171367ae44cb2c40
a0b2370eb5db0ef3239bdbe658d21d003b4349b79946380fe1a50831925edcc2ca071b143e6786768dcea2cdd2d3d5cc9783ae8e4821c68fb9549840541e7e65
2b1410deca799d737a942d66dca290f21850038c97b1cf05e0b10c1877c77b2c2c9ef1310bdbb5178266656de5cb7df54ea70f0a914bb5e649e8766bdee9cfb9
4b6085f2012636675a0aa31c52cddba976617f42cd5d956bc3aa873d428e4f8bc6a3ea7e4e0e48257f6e4a1021e1a9fbf3dab9b2523e459f171367ae44cb2c40
728b788e927c9f5d239bdbe658d21d0041718cac93d96face9a115b8c7ddc4b84170fd332ee148bbe1a50831925edcc29913af3bada91c2d483f55e176e8050b
160a764df56399c1fe5dfaa2d8850981a0d4ab6fc4a7c7df065f83aae4634fa9879999bc95c9f2dd6e3ab2a5aa2045793d022a4378adc714e5e43370791245e9
df8f9e8caf681eff8dcea2cdd2d3d5cc9783ae8e4821c68f44286f328a01b5597353264ebf8b05510736b9aea252cd5465bd351ff9bed562e744c825c139b1cb
e68ac9c0ef48968acc0121b5e20e20767921b52596421c1ae286a28d936b8f33b38bc17828a2ab02b09e2116325bc9f149f8aa45cfdb81e42d367b0a575e3ce9
728b788e927c9f5dbf230db17611f82f95ab3faba914e4694ff8bc5c8c33212feeefdb22dcdbd4f6951b258f444bb2850b48e0e9278fb77f6c22f8338c178f33
9783ae8e4821c68fa223a4da0518f3d67a942d66dca290f21850038c97b1cf05e0b10c1877c77b2c2c9ef1310bdbb5178266656de5cb7df5b8899015db32c1d7
8767f397bff4c3a731bbfa71d5efb6fe102372497787b35c7a942d66dca290f21850038c97b1cf05e0b10c1877c77b2c2c9ef1310bdbb5173715429211910b7a
0376ae280b00cfdf5dc5c0f0545f9e5a52f0efa950eeb19290b688cc3b60b545749d13634498f34b9cb4448fb1516346f5773fce681c79da57742b178a261337
a3b0a569056f091fa665d0fac02ce03efc3cfdc38967d2bac97e97bd2d3f44f963d99b2a6f58d0f2726d9a7f6b37359c8318958aa75d4556dd0a70f33e2447ea
4e2689494256295447158635b18b66593bb987347dc8406bfa89a606242e3e0d2cca841347251cd3048a47ee3223a427a53448d7f4e630a74e57665416e61e0a
4b6085f2012636675a0aa31c52cddba976617f42cd5d956bc3aa873d428e4f8bc6a3ea7e4e0e48257f6e4a1021e1a9fbf3dab9b2523e459f171367ae44cb2c40
f7412ed0ec2c28e706b5d3ebb65e4c763d2cbfff747e1dcf48788a4287dcf40cf4c8dcd345ffa2a512947b7287a36da5710f626c2faf14a647a67794e3079295
728b788e927c9f5dc12e63f53fc8b6c741718cac93d96fac534fd4c0b4c52abc13edef46eecfbf74d3726405ea698e41589af0812576e61b450139be464a895d
b032015482838020d2208d979160a9023496446293d294243d42ec0e9adceefd4f578f1576706b72847ae85b4c1e2122b969889b3f792e829ff0711c3f6220c6
8767f397bff4c3a731bbfa71d5efb6fe102372497787b35c7a942d66dca290f21850038c97b1cf05e0b10c1877c77b2c2c9ef1310bdbb5173715429211910b7a
728b788e927c9f5deb87848776396383fc3cfdc38967d2bac97e97bd2d3f44f94170fd332ee148bb726d9a7f6b37359c8318958aa75d4556dd0a70f33e2447ea
4e2689494256295447158635b18b66593bb987347dc8406bfa89a606242e3e0d2cca841347251cd3048a47ee3223a427a53448d7f4e630a74e57665416e61e0a
4b6085f2012636675a0aa31c52cddba976617f42cd5d956bc3aa873d428e4f8bc6a3ea7e4e0e48257f6e4a1021e1a9fbf3dab9b2523e459f171367ae44cb2c40
c4579026cd96bc77316d60295fefc001aabd1746cd6acce5b162c8e2b10d8623d80176816a080c307d7dbd2fb135ce0c4f2ca4f7a4ed3b6195a0dc091c3065bd
f7ebc366ed8e0930706b807646b80371cfa53bd07a4c56e560853c806946a8eebf1ee911780421dd6cf1b7c89fef48f49d6926c833f23ebcd651f63704e34783
0e84779c45a61693360cef7ba06ea105aba77df44cbcaf746cf1b7c89fef48f49d6926c833f23ebc369190d0ff77a684bd0685468aa887361859ff8907514bf8
a3b0a569056f091fcd9f9b0fe66d8ad1fc3cfdc38967d2bac97e97bd2d3f44f91bcba9a0a0f43970b7fb991056f628821cb2dfc0f3610084c27a0fe47ba19b0a
4651b4c215cbe2b1c23cdff2c91ac4503bb987347dc8406bfa89a606242e3e0d2cca841347251cd3048a47ee3223a427a53448d7f4e630a74e57665416e61e0a
8767f397bff4c3a731bbfa71d5efb6fe3ab97347ad0a000b43348d84ccce43af3496446293d294243d42ec0e9adceefd4f578f1576706b729464779069fc6740
8a8174021b1aae96706b807646b80371f5443b0e4cb481770ba19d272dd182693712dd84fabd010483205ab511566c50b60305a69571cbc06c22f8338c178f33
9783ae8e4821c68fa223a4da0518f3d67a942d66dca290f21850038c97b1cf05e0b10c1877c77b2c2c9ef1310bdbb5178266656de5cb7df5b8899015db32c1d7
8767f397bff4c3a731bbfa71d5efb6fe825b843a3aa9ddcd3bb987347dc8406bfa89a606242e3e0d2cca841347251cd3048a47ee3223a427cd4b542e1691d6b7
d19fa11588e6e08458de4e583b8480084f9a652302dc73189438f5062173fe87cfab4fb5255ef43c7dce71ebf820ab067a942d66dca290f2c405458d341e8b2b
a3b0a569056f091f239bdbe658d21d0038a742705cd2c15cd00d49d3ca93e9a34f9a652302dc73185b464a5c97c1711fa32a9f5de4fdf71d6c22f8338c178f33
9783ae8e4821c68fa223a4da0518f3d67a942d66dca290f21850038c97b1cf05e0b10c1877c77b2c2c9ef1310bdbb5178266656de5cb7df5b8899015db32c1d7
8767f397bff4c3a731bbfa71d5efb6fe3ab97347ad0a000b43348d84ccce43af3496446293d294243d42ec0e9adceefd4f578f1576706b729464779069fc6740
a0b2370eb5db0ef3b585b96681e0ca9bfc3cfdc38967d2bac97e97bd2d3f44f91bcba9a0a0f4397030097d4e4c185b2aac5156f26183fe26d2c0ea702584563a
e776e9b255bda08cbfd81d659a09e4b3b09e2116325bc9f149f8aa45cfdb81e41250d17b62510b67459171a86b5716f3cd0d3557d8a853f00aced5acb200215e
8767f397bff4c3a731bbfa71d5efb6fe102372497787b35c7a942d66dca290f21850038c97b1cf05e0b10c1877c77b2c2c9ef1310bdbb5173715429211910b7a
0376ae280b00cfdf239bdbe658d21d0038a742705cd2c15c7b1dc1cc144d0d978492e52ca99071373f1931d8abdeeb56d61f54b09854a9308b3c8c4b522b40cc
0c663d8ba121b3c1b5f1c17ee79563036cf1b7c89fef48f49d6926c833f23ebc369190d0ff77a684bd0685468aa88736e96a48d26648e7af2137b2e7fa634a0c
a3b0a569056f091fcc0121b5e20e2076edd3fa40d7695fdc97828490c51fca194352178c1f892363256e25b80e30f1cedf09e17e7ef5667383a43670874a565a
88b96b7c831faa4a41097083f6b3a2094f2ca4f7a4ed3b61a9abe4c5f39d08c2087a18986eea10908a2166d4893c46828cb3107cb91f8e93f39ef24abf8436a7
bbf0a766f49a242c2637e9cac2aa5ceafd49a287c76beca9cf3db11be05038854f2ca4f7a4ed3b61a9abe4c5f39d08c2087a18986eea1090f9ce670bb670daaa
0c8cc78d7e5a3829bc27f931268b4061cfafcb550c4c4607d919bfb796da25057a942d66dca290f21850038c97b1cf05e0b10c1877c77b2ceed3b99f3f996d6c
728b788e927c9f5dbc27f931268b4061edd3fa40d7695fdc97828490c51fca194352178c1f89236399448ccca394e5f7c2a465b43e329fcc7846daed4c599468
4f52237e05fcdaf4b31205aa407e75cde847dda77d5f9443c3aa873d428e4f8bc6a3ea7e4e0e48257f6e4a1021e1a9fbf3dab9b2523e459f171367ae44cb2c40
4b6085f2012636678ee5eab1ce21437bd80d314f38da2845b09e2116325bc9f149f8aa45cfdb81e41250d17b62510b67459171a86b5716f32cda075d37281a3b
a0b2370eb5db0ef3f6a2b547dc976ba038a742705cd2c15cb46bd03695adb1bc4f9a652302dc731818cca9610ecbf1840a2e43caf5343b1815498280a022d4f3
8dcea2cdd2d3d5cc9783ae8e4821c68fbaa78b47fb353ab3c3aa873d428e4f8bc6a3ea7e4e0e48257f6e4a1021e1a9fbf3dab9b2523e459f171367ae44cb2c40
bbf0a766f49a242c2637e9cac2aa5ceafd49a287c76beca9cf3db11be05038854f2ca4f7a4ed3b61a9abe4c5f39d08c2087a18986eea1090f9ce670bb670daaa
d01b9d58ce69ce7a706b807646b80371f5443b0e4cb48177b94318bac4752a5f9e33348eb61144b7d9459c5080ffa3227a942d66dca290f2c405458d341e8b2b
25d4429300c7c842706b807646b80371f5443b0e4cb481770ba19d272dd18269dd7ea1bf892f2ba67177fa82233780fb9147347fc38d688de4e72beed32b1f99
5911b2e9db27761795d7fcca0b5012cc3bb987347dc8406bfa89a606242e3e0d2cca841347251cd3048a47ee3223a427a53448d7f4e630a74e57665416e61e0a
bbf0a766f49a242c2637e9cac2aa5cea2cecad1ebf804c4bf467148f06ca8e436cf1b7c89fef48f49d6926c833f23ebc369190d0ff77a68492cf1653d6327676
0376ae280b00cfdfeb8784877639638338a742705cd2c15c266fa4007bc326e68492e52ca9907137aadf112005fc3f46ac98bf23f3ed7f2bbf537e0e59b627a5
ac1153cf12156726af399d32d282acb64f2ca4f7a4ed3b61a9abe4c5f39d08c2087a18986eea10908a2166d4893c46828cb3107cb91f8e93f39ef24abf8436a7
182441eff99e5f6961f9a1a8bd15d7648e83a9b60cb2f325b6e26668d057bceb67846f44772bf2f5b46e1497222952bccf89af1e838bc25aa88b576918eae302
3ebc2a90de34dee7706b807646b803713d2cbfff747e1dcf48788a4287dcf40c3ae2468b9ecaccb93496446293d294243d42ec0e9adceefd1ebaf2afd09dba0a
a2f717201e9c9a2461e7d90d036bba937a1935e5a9814b90749d13634498f34bc9322890ded6647bf2ddfdc2e88601bb1165e50f3a479ac4d38aff4e12555a5d
409e3fe0bd879b83209d7e1d8e00638cfbd3ec93f4d7b1b80794cbd97559f9294f2ca4f7a4ed3b61a9abe4c5f39d08c2087a18986eea1090f9ce670bb670daaa
567778b18f31b8495f0f4c9debbffb18ce89662db19bd4b0ba903b49c740dd533c98846e94d12e3de98de2173e055c6b7a942d66dca290f2c405458d341e8b2b
6d7b86b2701f021b706b807646b80371256e25b80e30f1ce39291e1599aea3b9d6c33cf0c628f811b0e6bd7d042d2d787a942d66dca290f2c405458d341e8b2b
a09ff2f28cc48947706b807646b803710921717109d5829ebef1147389402ffd56bfede5d11cc7ca3bb987347dc8406bfa89a606242e3e0deb7ea8bab8335d16
58cf452d198b3802706b807646b803711aff1fc289c540f95222d1ebff0007ebbd61f6e30cf3e98260877ff0912fae9efe5dfaa2d885098125129e7f856f61ae
35ee307aa0e721f1706b807646b803715222d1ebff0007ebd64f9a02639e36d6ee296b5d6cfe99f6fe5dfaa2d8850981a0d4ab6fc4a7c7dfdaa6f97d5986d82d
e8048a3016cd889e706b807646b803711aff1fc289c540f90ff7012fa48294467b0b219f700cf147644126c9831a96bdc3aa873d428e4f8b0040caf63598a43e
cc4b341c5e24cd729c4005bcd9ca79e6d8d893cf1e4b776427a54991c622620368f880019627a23ba0538438a76c11928a7b2ade104a35af641c922750239900
164fa78d940c61ce09b83f2c2506276a3bb987347dc8406bfa89a606242e3e0d2cca841347251cd3048a47ee3223a427a53448d7f4e630a74e57665416e61e0a
ba78eb4846799657706b807646b803715222d1ebff0007eb92ded8489cfb995e511bd9cf91781baf3bb987347dc8406bfa89a606242e3e0deb7ea8bab8335d16
740d115094edebf3706b807646b803715222d1ebff0007eb799cf33946949d0ae4c9ae8f3d6491d6fe5dfaa2d8850981a0d4ab6fc4a7c7dfdaa6f97d5986d82d
f24cff2bb787655c706b807646b80371fae74314fc998ff227a54991c6226203e72dc6432c1f43f0303d7240d8c3139d6cf1b7c89fef48f4a66697a0ee9ef935
b2f0d6f435a33c499618ecced211464e28c49fe2efed9bf6fd97cce0492f5cda783fddb1fe577f70476064a130274e697b452e02fd8bae8d50bb14bcb1a18a9d
acd4ce0f805e5ed37a942d66dca290f21850038c97b1cf05e0b10c1877c77b2c2c9ef1310bdbb5178266656de5cb7df54ea70f0a914bb5e649e8766bdee9cfb9
596da1f5e674a172c16ccdf52a872484b1c9bfe6972c81e2a33f85b2cddfdc2d2b5475c9a50f2a8def3c5f22f521749ba0bb905dc9abbcb1c1149e604f91981f
0aac6a00ab45568cbc27f931268b406150a47f354eb7f1145222d1ebff0007eb0852031f66e85bca97d0bdc16e1372b18dcea2cdd2d3d5ccd573267e41263c5c
dd06c2baef735cae2b1410deca799d737a942d66dca290f21850038c97b1cf05e0b10c1877c77b2c2c9ef1310bdbb5178266656de5cb7df5b8899015db32c1d7
4b6085f2012636678ee5eab1ce21437b510105bdbe002c45b09e2116325bc9f149f8aa45cfdb81e41250d17b62510b67459171a86b5716f32cda075d37281a3b
dec3a0c43a5c7489c16ccdf52a8724842c8639cd503ddfd0e6d7449d641bcd889ea4fa4557fedfdda349a2b29488b575f3239a9d124980443a444cc21a4b9d6c
0b384e08d9e8dd46706b807646b80371fae74314fc998ff206d295fd7bd15058c222c5897aa86badfe5dfaa2d8850981a0d4ab6fc4a7c7dfdaa6f97d5986d82d
0aac6a00ab45568ccc0121b5e20e2076aea3f2ce3191224c553813051b0e81acfc631dcd578f83fb5222d1ebff0007ebac0ab112506488df83a43670874a565a
88b96b7c831faa4a41097083f6b3a2094f2ca4f7a4ed3b61a9abe4c5f39d08c2087a18986eea10908a2166d4893c46828cb3107cb91f8e93f39ef24abf8436a7
bbf0a766f49a242c2637e9cac2aa5ceafd49a287c76beca9cf3db11be05038854f2ca4f7a4ed3b61a9abe4c5f39d08c2087a18986eea1090f9ce670bb670daaa
0aac6a00ab45568cc12e63f53fc8b6c7aea3f2ce3191224c18721901e58dfbc6e933eed5ccd3e2ce556f97232d129a4c9c43c24eda4802f77ec09cef15c57fb0
1933952b4dcad44c74c7e4af17ab9ceb4f2ca4f7a4ed3b61a9abe4c5f39d08c2087a18986eea10908a2166d4893c46828cb3107cb91f8e93f39ef24abf8436a7
8767f397bff4c3a731bbfa71d5efb6fe102372497787b35c7a942d66dca290f21850038c97b1cf05e0b10c1877c77b2c2c9ef1310bdbb5173715429211910b7a
0aac6a00ab45568ccd9f9b0fe66d8ad1f9dc63beea816b13270b3f0407123fb00afdb3762bfec5484d415f565f6cabfc8f26dd77f7410485c27a0fe47ba19b0a
4651b4c215cbe2b1c23cdff2c91ac4503bb987347dc8406bfa89a606242e3e0d2cca841347251cd3048a47ee3223a427a53448d7f4e630a74e57665416e61e0a
8767f397bff4c3a731bbfa71d5efb6fe825b843a3aa9ddcd3bb987347dc8406bfa89a606242e3e0d2cca841347251cd3048a47ee3223a427cd4b542e1691d6b7
9afa1f10a7f457ea305df145c3f0db7689bf76e01e4f25a7bf1ee911780421dd6cf1b7c89fef48f49d6926c833f23ebc369190d0ff77a68492cf1653d6327676
abea470061b4cf466dd0513262cc7fe1801507dc8f17f9ed65b4a2d3aea7266c9c90a3a51ea443f875963efd3ee34e16b032015482838020199902ef25e0ffab
d24b51ea77d688883496446293d294243d42ec0e9adceefd4f578f1576706b72847ae85b4c1e2122b969889b3f792e82bac9138ba74a82cdd84b31f109a57a3f
4b6085f2012636675a0aa31c52cddba976617f42cd5d956bc3aa873d428e4f8bc6a3ea7e4e0e48257f6e4a1021e1a9fbf3dab9b2523e459f171367ae44cb2c40
d14a7be013205a65706b807646b803719bfb58f52ff3f15b919a1a483fd9ac37ead237023e1f2dbfd850d810bff28dd33b79d1cd0e073c32a88b576918eae302
d14a7be013205a65cd9f9b0fe66d8ad15a0ca9522a9a3afd9425cff0d3bdefea4dee5e12833d97a551d648828f8f9f93644126c9831a96bd808f04673e2ab463
8811cc74461313c0706b807646b803719bfb58f52ff3f15b797078971c73c79b4428b01bbd5a57763bb987347dc8406bfa89a606242e3e0deb7ea8bab8335d16
566e59fee58771a1425bcb48fb127b9244aac1ff28ae947008d67fe78642eda520dd1f3032ad83aab383949ebd282b3733482913d96e3cf746e1e4ffd18925b5
38b8b2a18a191931c16d2ac2056834074f2ca4f7a4ed3b61a9abe4c5f39d08c2087a18986eea10908a2166d4893c46828cb3107cb91f8e93f39ef24abf8436a7
0ab211371282fdc4706b807646b8037184194d81a867c10f75e1d559381d4ff97f40c38b8ca56669644126c9831a96bdc3aa873d428e4f8b0040caf63598a43e
5fd748946993a2d7668b110c340b4f42174ded19fbe09a54e3b1e8e4661e07b4cc742a07ecb61ec10c1db476b27d5c5d4f2ca4f7a4ed3b6195a0dc091c3065bd
137257754af3e811706b807646b803719bfb58f52ff3f15be18a5739bbb1c0f3b7dd1bd0eee4f1c74964f53eb31ca3694f2ca4f7a4ed3b6195a0dc091c3065bd
ddf70eae3b592905c7a50c75caf86431e5990f3c5058cefab05065de7f5fbd47042ea56715bccfa73bb987347dc8406bfa89a606242e3e0deb7ea8bab8335d16
5ee2cb97977205d5c12e63f53fc8b6c7d646408a812fb914b95c635009a6db21726d9a7f6b37359c8318958aa75d45564651b4c215cbe2b16229de77bbf0c9c9
47158635b18b66593bb987347dc8406bfa89a606242e3e0d2cca841347251cd3048a47ee3223a427a53448d7f4e630a783ad2ee2715460fe3ca3335b03ccbaf4
4b6085f2012636675a0aa31c52cddba976617f42cd5d956bc3aa873d428e4f8bc6a3ea7e4e0e48257f6e4a1021e1a9fbf3dab9b2523e459f171367ae44cb2c40
1c667e0d2a92b91b706b807646b80371b8e0dd7cfcfa74a458a67171a680df64324be20869ac7207fe5dfaa2d8850981a0d4ab6fc4a7c7dfdaa6f97d5986d82d
5ee2cb97977205d5cc0121b5e20e20761c1b4b02aaa6d41a9271f529e22d05ba5128cfe4961d45678dcea2cdd2d3d5cc9783ae8e4821c68fb9549840541e7e65
2b1410deca799d737a942d66dca290f21850038c97b1cf05e0b10c1877c77b2c2c9ef1310bdbb5178266656de5cb7df54ea70f0a914bb5e649e8766bdee9cfb9
4b6085f2012636675a0aa31c52cddba976617f42cd5d956bc3aa873d428e4f8bc6a3ea7e4e0e48257f6e4a1021e1a9fbf3dab9b2523e459f171367ae44cb2c40
5ee2cb97977205d5bc27f931268b4061f86e1e09fe3d04f627d559f2749640e083eb0b20394a7d006cabeb824f769b7a8dcea2cdd2d3d5ccd573267e41263c5c
dd06c2baef735cae2b1410deca799d737a942d66dca290f21850038c97b1cf05e0b10c1877c77b2c2c9ef1310bdbb5178266656de5cb7df5b8899015db32c1d7
4b6085f2012636676f3085441f0c7a2a3496446293d294243d42ec0e9adceefd4f578f1576706b72847ae85b4c1e2122b969889b3f792e829ff0711c3f6220c6
5ee2cb97977205d5cd9f9b0fe66d8ad1f86e1e09fe3d04f6ca5bb407806b31a4d524dc882c5745247dbbd37ba93c9ecb8dcea2cdd2d3d5ccd573267e41263c5c
dd06c2baef735cae2b1410deca799d737a942d66dca290f21850038c97b1cf05e0b10c1877c77b2c2c9ef1310bdbb5178266656de5cb7df5b8899015db32c1d7
4b6085f2012636675a0aa31c52cddba976617f42cd5d956bc3aa873d428e4f8bc6a3ea7e4e0e48257f6e4a1021e1a9fbf3dab9b2523e459f171367ae44cb2c40
71ca61a8e86c757c239bdbe658d21d007ef4abdbd4fef13fcebbaeba8aa1a44345db2efc543b8243b09e2116325bc9f149f8aa45cfdb81e42d367b0a575e3ce9
111421f0a055b938239bdbe658d21d00b8736a19222d66cdbed1f7a8316dd8a1639724f1c5bd055935c792664f9c8dc6d2bbd7e847d638e106ca5c9d845745cf
a5257eba54077ab5021166ac3753b7b8b09e2116325bc9f149f8aa45cfdb81e41250d17b62510b67459171a86b5716f3cd0d3557d8a853f00aced5acb200215e
4b6085f2012636678ee5eab1ce21437bb001bba7c935540cb09e2116325bc9f149f8aa45cfdb81e41250d17b62510b67459171a86b5716f32cda075d37281a3b
111421f0a055b938cc0121b5e20e2076f86e1e09fe3d04f6e15491474852f5ad9268e1b5a1fd3c4ebcb37f4a121d58e69df85dc52bdd69a0d763e609fed040d2
5817f551786825e138380075bb5248d83496446293d294243d42ec0e9adceefd4f578f1576706b72847ae85b4c1e2122b969889b3f792e829ff0711c3f6220c6
cdaa385411811e27bfd81d659a09e4b32637e9cac2aa5ceafd49a287c76beca9cf3db11be05038854f2ca4f7a4ed3b61a9abe4c5f39d08c2e1c86e9425be10a2
111421f0a055b938eb87848776396383f86e1e09fe3d04f6888a3692cee04df1dfa89b43e899ed8ba4cb945df800a7e3a7e49783c8cac288e4e72beed32b1f99
5911b2e9db27761795d7fcca0b5012cc3bb987347dc8406bfa89a606242e3e0d2cca841347251cd3048a47ee3223a427a53448d7f4e630a74e57665416e61e0a
bbf0a766f49a242c2637e9cac2aa5ceafd49a287c76beca9cf3db11be05038854f2ca4f7a4ed3b61a9abe4c5f39d08c2087a18986eea1090f9ce670bb670daaa
b792df1c569bb9cf706b807646b80371d1b4e89eeab6a0f9979362ca39bb8ea6fa03e1cf46d7462e1d23145fb55db13eb09e2116325bc9f1a7f3abf1683ad505
775f50e11efc1f9b239bdbe658d21d00f86e1e09fe3d04f6e15491474852f5ad9268e1b5a1fd3c4e42a8a1c3403d79e4ea2071c894cab4b146917d0956565034
93d3808648446fd7a60fd3951de4fe94270c3c4dec9eff7ab09e2116325bc9f149f8aa45cfdb81e41250d17b62510b67459171a86b5716f32cda075d37281a3b
6f9e44b148457c431b335ff666912215216d02a4467a774544409e2fda1d6c10fe5dfaa2d8850981a0d4ab6fc4a7c7df065f83aae4634fa919ad55f47afc7ee4
3c4b13895afabd52a7e7df25e129ac23a956c0fedbf31024263842fa74a5efe84c49b18e65b201253496446293d294243d42ec0e9adceefd1ebaf2afd09dba0a
da0c0ec624f0b186db52dae1d728d81d5c9b9602a1e78ea27b18ff295224791c2e84a24b28f5f77bf1785c3f15a8aa918cf804646b4d5905d149f595e11e11c5
8675a01b2db95be73bb987347dc8406bfa89a606242e3e0d2cca841347251cd3048a47ee3223a427a53448d7f4e630a783ad2ee2715460fe3ca3335b03ccbaf4
e5963359676631df706b807646b80371399886e426fd9eab7d356d888ee2187ede58a69870aa3c695c121528a5d0b063b09e2116325bc9f1a7f3abf1683ad505
4524b133671bc603c12e63f53fc8b6c750a47f354eb7f114842bec203a544e0cbc9f2a01a30e151f5f6812458a70615d3bb987347dc8406ba4ce56269f4bc2c4
494dac2fba9db135cc0121b5e20e2076757523c47e0cc6730f4def2be59d884bbf4d623a3966aee9a1c45ef70353d9ceb60305a69571cbc06c22f8338c178f33
9783ae8e4821c68fa223a4da0518f3d67a942d66dca290f21850038c97b1cf05e0b10c1877c77b2c2c9ef1310bdbb5178266656de5cb7df5b8899015db32c1d7
8767f397bff4c3a731bbfa71d5efb6fe825b843a3aa9ddcd3bb987347dc8406bfa89a606242e3e0d2cca841347251cd3048a47ee3223a427cd4b542e1691d6b7
3c4b13895afabd52c4a16839124f00c6a956c0fedbf31024d059f0f8a4182cb70e356d065fc27a7c6ff2c4226d0d032e94fa6e75c7268f6e213b98d888a071c6
2614629f723868a53bb987347dc8406bfa89a606242e3e0d2cca841347251cd3048a47ee3223a427a53448d7f4e630a783ad2ee2715460fe3ca3335b03ccbaf4
89a65fc399ca277d35e0fac48f23dadb16b3ec856a7b15147a942d66dca290f21850038c97b1cf05e0b10c1877c77b2c2c9ef1310bdbb5173715429211910b7a
8221f4fb8abf8942706b807646b803710dd6d18fe0bad14bf13d94e5795aaf0d54d6ab419ea1e6cf303d7240d8c3139d6cf1b7c89fef48f4a66697a0ee9ef935
8e1bb7ece036b354a665d0fac02ce03e757523c47e0cc67393193e6f8339801ac7b38c1d25df60601856f148ae9590428e81e5e0c2bf00299df764b2541cc1e5
75963efd3ee34e16b032015482838020b09e2116325bc9f149f8aa45cfdb81e41250d17b62510b67459171a86b5716f3cd0d3557d8a853f00aced5acb200215e
bbf0a766f49a242c2637e9cac2aa5ceafd49a287c76beca9cf3db11be05038854f2ca4f7a4ed3b61a9abe4c5f39d08c2087a18986eea1090f9ce670bb670daaa
82a711615d2f99aac12e63f53fc8b6c7d2e3c56410abc1c494fa6e75c7268f6e2f9b48beb5f0e91c3496446293d294243d42ec0e9adceefd1ebaf2afd09dba0a
494dac2fba9db135a665d0fac02ce03e5fb59c000c8ac8d5186b9a2e000f6435600d37305e575b075bbe7e447dfa68de7bb04849f45a3672450139be464a895d
b032015482838020d2208d979160a9023496446293d294243d42ec0e9adceefd4f578f1576706b72847ae85b4c1e2122b969889b3f792e829ff0711c3f6220c6
8767f397bff4c3a731bbfa71d5efb6fe825b843a3aa9ddcd3bb987347dc8406bfa89a606242e3e0d2cca841347251cd3048a47ee3223a427cd4b542e1691d6b7
82a711615d2f99aabf230db17611f82f757523c47e0cc673f32cf4a665bfd53bb727347f432093663496446293d294243d42ec0e9adceefd1ebaf2afd09dba0a
494dac2fba9db135eb87848776396383757523c47e0cc6731329bc8587880457596be93fe3fc0cdf0dd6d18fe0bad14b2421305eadaf48019747c30fc56f7f19
6adaa6fca9d77dacb09e2116325bc9f149f8aa45cfdb81e41250d17b62510b67459171a86b5716f3cd0d3557d8a853f01c119117996118e6af0edaa61fe90fc8
3df9a677826d409d4dbff6c18b1b511e2c923fec71cf1ac71933952b4dcad44ca68ba69006c80e09f1b6bc29d103b91577f09873ee0e91944f3c77507b0ac61b
494dac2fba9db135b585b96681e0ca9b757523c47e0cc6731c00b720e5fd2e72724c2c9a02bac664fbc9b4e607d6b24af242d1b0fc1c938926683bafc4a97a53
514f62c280b211cf44a13be474cf54fb3496446293d294243d42ec0e9adceefd4f578f1576706b72847ae85b4c1e2122b969889b3f792e829ff0711c3f6220c6
baf8b95f70cde0d68dcea2cdd2d3d5cc9783ae8e4821c68f44286f328a01b5597353264ebf8b05510736b9aea252cd5465bd351ff9bed562e744c825c139b1cb
3c4b13895afabd52f9050b7c03df6d02dd71575317ab6e763356e67285f398fe749d13634498f34b192fb0130cd26ef2b51b74bc9086eb3106995f790022e344
2c62f490194880962eb5b7a515e50cf73496446293d294243d42ec0e9adceefd4f578f1576706b72847ae85b4c1e2122b969889b3f792e829ff0711c3f6220c6
4524b133671bc603bc27f931268b4061757523c47e0cc673ebd3332d7989a79526d6bbf2c61eda9d6fca7992efbf1cb62270b278b7aaaab0e744c825c139b1cb
124c21d138b32db3706b807646b80371d1a9e6d39c6e5ca1e4c2b65c2a32118236a8238a25b72279c3aa873d428e4f8bc6a3ea7e4e0e4825c4c06cc4bd52c30c
494dac2fba9db135f6a2b547dc976ba0757523c47e0cc673d189f9d621628acf9304af996adab1cb41a9caf2e62f42d56baa4c351fc5e3ad6c22f8338c178f33
9783ae8e4821c68fa223a4da0518f3d67a942d66dca290f21850038c97b1cf05e0b10c1877c77b2c2c9ef1310bdbb5178266656de5cb7df5b8899015db32c1d7
8767f397bff4c3a731bbfa71d5efb6fe102372497787b35c7a942d66dca290f21850038c97b1cf05e0b10c1877c77b2c2c9ef1310bdbb5173715429211910b7a
fa2af96bf1fddc9416133fa516cec5aa5981fd6b033690edcdd6c3d82d863cfac3aa873d428e4f8bc6a3ea7e4e0e48257f6e4a1021e1a9fb4e010d0ded08e182
9bdec3194044f5b0706b807646b80371ca20827aa4eac7224ba17e9c9c279600a25b14831f255f573496446293d294243d42ec0e9adceefd1ebaf2afd09dba0a
370b8ed76eb549a7706b807646b803718f92da22a4244e43e9d7985e5e43ef3d0ccf2addf8667576ed1bfb8e5fa665ca6be520bd0cea7ee6892e8bb282280cdd
8318958aa75d4556dad4b7980b83d60c3496446293d294243d42ec0e9adceefd4f578f1576706b72847ae85b4c1e2122b969889b3f792e829ff0711c3f6220c6
bbf0a766f49a242c2637e9cac2aa5ceafd49a287c76beca9cf3db11be05038854f2ca4f7a4ed3b61a9abe4c5f39d08c2087a18986eea1090f9ce670bb670daaa
08434bcf97f098cf706b807646b80371527dbd0674957f2857faa6888ac8e3e2669c3a674bded22dba928f7f1ee3adfdf15ae3c03af651c9e19eb2812c55ca5c
88b96b7c831faa4a41097083f6b3a2094f2ca4f7a4ed3b61a9abe4c5f39d08c2087a18986eea10908a2166d4893c46828cb3107cb91f8e93f39ef24abf8436a7
bbf0a766f49a242c2637e9cac2aa5cea2cecad1ebf804c4bf467148f06ca8e436cf1b7c89fef48f49d6926c833f23ebc369190d0ff77a68492cf1653d6327676
759f2c304c5cd59b2716e67bb37c7392f835017f3393da0ac14a8e5e53f4ea7766eaeb9fc4cc8ae12facfa433c762855fee00740222949fa7ccc0443c629ad57
7338867859433855706b807646b803718f92da22a4244e439ca44654eaa58d3bba928f7f1ee3adfd17bd6cf04312c7592cce2409ab57f0824355a92f38224fdd
2c111b14f340aa46706b807646b80371527dbd0674957f2857faa6888ac8e3e26ced3fd0d5fb137b4f8181b227c1b6b53bb987347dc8406ba4ce56269f4bc2c4